
OS:Version,
  {3b321060-7902-4d1e-af46-72e8b41f0c3d}, !- Handle
  3.7.0;                                  !- Version Identifier

OS:WeatherFile,
  {63bdf931-b844-4613-a04c-caa7543154cb}, !- Handle
  Aurora Buckley Field Angb,              !- City
  CO,                                     !- State Province Region
  USA,                                    !- Country
  TMY3,                                   !- Data Source
  724695,                                 !- WMO Number
  39.72,                                  !- Latitude {deg}
  -104.75,                                !- Longitude {deg}
  -7,                                     !- Time Zone {hr}
  1726,                                   !- Elevation {m}
  /weather/G0800310.epw,                  !- Url
  6108D70C,                               !- Checksum
  ,                                       !- Start Date Actual Year
  Sunday;                                 !- Start Day of Week

OS:YearDescription,
  {d492cf5a-9cae-4b3b-bd26-08f94ad3cdf0}, !- Handle
  2018,                                   !- Calendar Year
  ,                                       !- Day of Week for Start Day
  ;                                       !- Is Leap Year

OS:Site,
  {7b5da88e-26da-4ed9-a939-a7b18b8fff8f}, !- Handle
  Aurora Buckley Field Angb_CO_USA,       !- Name
  39.72,                                  !- Latitude {deg}
  -104.75,                                !- Longitude {deg}
  -7,                                     !- Time Zone {hr}
  1726,                                   !- Elevation {m}
  Suburbs;                                !- Terrain

OS:RunPeriodControl:DaylightSavingTime,
  {b26595e5-53e6-42c6-bca2-4a52a5fe4e21}, !- Handle
  Mar 12,                                 !- Start Date
  Nov 5;                                  !- End Date

OS:Site:GroundTemperature:Shallow,
  {41bc4b59-de66-4091-95c6-f9d6acb91062}, !- Handle
  5.74779807726293,                       !- January Surface Ground Temperature {C}
  3.93369421172941,                       !- February Surface Ground Temperature {C}
  3.78841426841401,                       !- March Surface Ground Temperature {C}
  4.64929924678728,                       !- April Surface Ground Temperature {C}
  8.10527271213475,                       !- May Surface Ground Temperature {C}
  11.5451467869795,                       !- June Surface Ground Temperature {C}
  14.5273337683838,                       !- July Surface Ground Temperature {C}
  16.4164758757094,                       !- August Surface Ground Temperature {C}
  16.5769688740467,                       !- September Surface Ground Temperature {C}
  15.0404692911898,                       !- October Surface Ground Temperature {C}
  12.1343298286974,                       !- November Surface Ground Temperature {C}
  8.79997707961545;                       !- December Surface Ground Temperature {C}

OS:SimulationControl,
  {3fbb6531-70aa-4212-9a44-d4ad34133e98}, !- Handle
  ,                                       !- Do Zone Sizing Calculation
  ,                                       !- Do System Sizing Calculation
  ,                                       !- Do Plant Sizing Calculation
  No;                                     !- Run Simulation for Sizing Periods

OS:Timestep,
  {d65bc3a3-a9f6-41a2-81f1-d6038351dff3}, !- Handle
  4;                                      !- Number of Timesteps per Hour

OS:ShadowCalculation,
  {57e92aa5-f3ea-47d2-a07a-534f5f06f41d}, !- Handle
  PolygonClipping,                        !- Shading Calculation Method
  ,                                       !- Shading Calculation Update Frequency Method
  20,                                     !- Shading Calculation Update Frequency
  200,                                    !- Maximum Figures in Shadow Overlap Calculations
  ,                                       !- Polygon Clipping Algorithm
  512,                                    !- Pixel Counting Resolution
  ,                                       !- Sky Diffuse Modeling Algorithm
  No,                                     !- Output External Shading Calculation Results
  No,                                     !- Disable Self-Shading Within Shading Zone Groups
  No;                                     !- Disable Self-Shading From Shading Zone Groups to Other Zones

OS:SurfaceConvectionAlgorithm:Outside,
  {4f94f67b-2a53-4ef0-8397-5286892531b5}, !- Handle
  DOE-2;                                  !- Algorithm

OS:SurfaceConvectionAlgorithm:Inside,
  {a2b11560-5c96-4df2-a7ce-09fbb2e9caa8}, !- Handle
  TARP;                                   !- Algorithm

OS:ZoneCapacitanceMultiplier:ResearchSpecial,
  {4e656111-7614-4bc9-9bda-9e96704570ce}, !- Handle
  1,                                      !- Temperature Capacity Multiplier
  15,                                     !- Humidity Capacity Multiplier
  ;                                       !- Carbon Dioxide Capacity Multiplier

OS:ConvergenceLimits,
  {e0c2706e-5384-487b-aa1e-039e31ea8686}, !- Handle
  0;                                      !- Minimum System Timestep {minutes}

OS:RunPeriod,
  {f4b6df22-161d-4735-85e9-21edee110fce}, !- Handle
  Run Period 1,                           !- Name
  1,                                      !- Begin Month
  1,                                      !- Begin Day of Month
  12,                                     !- End Month
  31,                                     !- End Day of Month
  ,                                       !- Use Weather File Holidays and Special Days
  ,                                       !- Use Weather File Daylight Saving Period
  ,                                       !- Apply Weekend Holiday Rule
  ,                                       !- Use Weather File Rain Indicators
  ,                                       !- Use Weather File Snow Indicators
  ;                                       !- Number of Times Runperiod to be Repeated

OS:PerformancePrecisionTradeoffs,
  {e47bf928-bd0a-43ac-bb34-4db2356dd319}, !- Handle
  ,                                       !- Use Coil Direct Solutions
  CarrollMRT;                             !- Zone Radiant Exchange Algorithm

OS:ThermalZone,
  {9f387b9f-f6ca-4278-be65-d5571ec39b95}, !- Handle
  conditioned space,                      !- Name
  1,                                      !- Multiplier
  ,                                       !- Ceiling Height {m}
  384.656044105728,                       !- Volume {m3}
  ,                                       !- Floor Area {m2}
  ,                                       !- Zone Inside Convection Algorithm
  ,                                       !- Zone Outside Convection Algorithm
  ,                                       !- Zone Conditioning Equipment List Name
  {5084b243-9c35-4220-b3d4-a50d5dffc194}, !- Zone Air Inlet Port List
  {502e4293-d3ec-4d8e-99b1-266e167a3e62}, !- Zone Air Exhaust Port List
  {2c94b2d4-52b8-4b6d-93db-612fae342b5f}, !- Zone Air Node Name
  {25f9b6ee-4185-47d7-9dca-92f1763b75a5}, !- Zone Return Air Port List
  ,                                       !- Primary Daylighting Control Name
  ,                                       !- Fraction of Zone Controlled by Primary Daylighting Control
  ,                                       !- Secondary Daylighting Control Name
  ,                                       !- Fraction of Zone Controlled by Secondary Daylighting Control
  ,                                       !- Illuminance Map Name
  ,                                       !- Group Rendering Name
  {46e9da5b-0f33-485f-9eea-d9b4a9bc2ecd}, !- Thermostat Name
  No;                                     !- Use Ideal Air Loads

OS:Node,
  {7bf14741-3293-4f4a-baa3-c5db10e69a15}, !- Handle
  Node 1,                                 !- Name
  {2c94b2d4-52b8-4b6d-93db-612fae342b5f}, !- Inlet Port
  ;                                       !- Outlet Port

OS:Connection,
  {2c94b2d4-52b8-4b6d-93db-612fae342b5f}, !- Handle
  {9f387b9f-f6ca-4278-be65-d5571ec39b95}, !- Source Object
  11,                                     !- Outlet Port
  {7bf14741-3293-4f4a-baa3-c5db10e69a15}, !- Target Object
  2;                                      !- Inlet Port

OS:PortList,
  {5084b243-9c35-4220-b3d4-a50d5dffc194}, !- Handle
  {9f387b9f-f6ca-4278-be65-d5571ec39b95}, !- HVAC Component
  {97674fc8-6d23-4003-b852-657dc46b6f22}; !- Port 1

OS:PortList,
  {502e4293-d3ec-4d8e-99b1-266e167a3e62}, !- Handle
  {9f387b9f-f6ca-4278-be65-d5571ec39b95}; !- HVAC Component

OS:PortList,
  {25f9b6ee-4185-47d7-9dca-92f1763b75a5}, !- Handle
  {9f387b9f-f6ca-4278-be65-d5571ec39b95}, !- HVAC Component
  {21530a9e-7324-4305-af00-3ec3793ef8c1}; !- Port 1

OS:Sizing:Zone,
  {835cde1d-a553-4580-b786-59258e1880f1}, !- Handle
  {9f387b9f-f6ca-4278-be65-d5571ec39b95}, !- Zone or ZoneList Name
  SupplyAirTemperature,                   !- Zone Cooling Design Supply Air Temperature Input Method
  14,                                     !- Zone Cooling Design Supply Air Temperature {C}
  11.11,                                  !- Zone Cooling Design Supply Air Temperature Difference {deltaC}
  SupplyAirTemperature,                   !- Zone Heating Design Supply Air Temperature Input Method
  40,                                     !- Zone Heating Design Supply Air Temperature {C}
  11.11,                                  !- Zone Heating Design Supply Air Temperature Difference {deltaC}
  0.0085,                                 !- Zone Cooling Design Supply Air Humidity Ratio {kg-H2O/kg-air}
  0.008,                                  !- Zone Heating Design Supply Air Humidity Ratio {kg-H2O/kg-air}
  ,                                       !- Zone Heating Sizing Factor
  ,                                       !- Zone Cooling Sizing Factor
  DesignDay,                              !- Cooling Design Air Flow Method
  ,                                       !- Cooling Design Air Flow Rate {m3/s}
  ,                                       !- Cooling Minimum Air Flow per Zone Floor Area {m3/s-m2}
  ,                                       !- Cooling Minimum Air Flow {m3/s}
  ,                                       !- Cooling Minimum Air Flow Fraction
  DesignDay,                              !- Heating Design Air Flow Method
  ,                                       !- Heating Design Air Flow Rate {m3/s}
  ,                                       !- Heating Maximum Air Flow per Zone Floor Area {m3/s-m2}
  ,                                       !- Heating Maximum Air Flow {m3/s}
  ,                                       !- Heating Maximum Air Flow Fraction
  No,                                     !- Account for Dedicated Outdoor Air System
  NeutralSupplyAir,                       !- Dedicated Outdoor Air System Control Strategy
  autosize,                               !- Dedicated Outdoor Air Low Setpoint Temperature for Design {C}
  autosize,                               !- Dedicated Outdoor Air High Setpoint Temperature for Design {C}
  Sensible Load Only No Latent Load,      !- Zone Load Sizing Method
  HumidityRatioDifference,                !- Zone Latent Cooling Design Supply Air Humidity Ratio Input Method
  ,                                       !- Zone Dehumidification Design Supply Air Humidity Ratio {kgWater/kgDryAir}
  0.005,                                  !- Zone Cooling Design Supply Air Humidity Ratio Difference {kgWater/kgDryAir}
  HumidityRatioDifference,                !- Zone Latent Heating Design Supply Air Humidity Ratio Input Method
  ,                                       !- Zone Humidification Design Supply Air Humidity Ratio {kgWater/kgDryAir}
  0.005;                                  !- Zone Humidification Design Supply Air Humidity Ratio Difference {kgWater/kgDryAir}

OS:ZoneHVAC:EquipmentList,
  {50dc3487-9c11-415e-9a30-73d9a598719d}, !- Handle
  Zone HVAC Equipment List 1,             !- Name
  {9f387b9f-f6ca-4278-be65-d5571ec39b95}, !- Thermal Zone
  ,                                       !- Load Distribution Scheme
  {c3413e11-d51c-4119-b26a-f680ac145a25}, !- Zone Equipment 1
  1,                                      !- Zone Equipment Cooling Sequence 1
  1,                                      !- Zone Equipment Heating or No-Load Sequence 1
  {c9606513-cd5b-4191-a4fc-506bff738177}, !- Zone Equipment Sequential Cooling Fraction Schedule Name 1
  {e4afc91c-d977-4d76-882e-bc86be7f79ec}; !- Zone Equipment Sequential Heating Fraction Schedule Name 1

OS:AdditionalProperties,
  {990eccf8-cb7f-453f-8248-22ee05f58028}, !- Handle
  {9f387b9f-f6ca-4278-be65-d5571ec39b95}, !- Object Name
  ObjectType,                             !- Feature Name 1
  String,                                 !- Feature Data Type 1
  conditioned space;                      !- Feature Value 1

OS:Space,
  {a4f94d7f-8fe8-4a3b-8477-37f2430de3bb}, !- Handle
  conditioned space 1,                    !- Name
  ,                                       !- Space Type Name
  ,                                       !- Default Construction Set Name
  ,                                       !- Default Schedule Set Name
  ,                                       !- Direction of Relative North {deg}
  ,                                       !- X Origin {m}
  ,                                       !- Y Origin {m}
  ,                                       !- Z Origin {m}
  ,                                       !- Building Story Name
  {9f387b9f-f6ca-4278-be65-d5571ec39b95}, !- Thermal Zone Name
  ,                                       !- Part of Total Floor Area
  ,                                       !- Design Specification Outdoor Air Object Name
  {f7a7cf31-8f80-4dfd-952b-68dc8d3066be}, !- Building Unit Name
  384.656044105728;                       !- Volume {m3}

OS:Schedule:Ruleset,
  {481b9b06-efa6-4baf-aac8-dbfc40b4d459}, !- Handle
  heating setpoint,                       !- Name
  {d5992c9d-b0f6-4e19-a4c4-57dbf1240113}, !- Schedule Type Limits Name
  {bb704187-2f86-44fe-ae27-564b57c7e26b}; !- Default Day Schedule Name

OS:Schedule:Day,
  {bb704187-2f86-44fe-ae27-564b57c7e26b}, !- Handle
  heating setpoint default day,           !- Name
  {d5992c9d-b0f6-4e19-a4c4-57dbf1240113}, !- Schedule Type Limits Name
  ,                                       !- Interpolate to Timestep
  24,                                     !- Hour 1
  0,                                      !- Minute 1
  0;                                      !- Value Until Time 1

OS:Schedule:Rule,
  {a82ff783-9799-44c6-9b18-b5f30334f037}, !- Handle
  heating setpoint allday ruleset1,       !- Name
  {481b9b06-efa6-4baf-aac8-dbfc40b4d459}, !- Schedule Ruleset Name
  0,                                      !- Rule Order
  {79c544f4-0023-4634-82fb-9f4e40fefe0b}, !- Day Schedule Name
  Yes,                                    !- Apply Sunday
  Yes,                                    !- Apply Monday
  Yes,                                    !- Apply Tuesday
  Yes,                                    !- Apply Wednesday
  Yes,                                    !- Apply Thursday
  Yes,                                    !- Apply Friday
  Yes,                                    !- Apply Saturday
  DateRange,                              !- Date Specification Type
  1,                                      !- Start Month
  1,                                      !- Start Day
  12,                                     !- End Month
  31;                                     !- End Day

OS:Schedule:Day,
  {79c544f4-0023-4634-82fb-9f4e40fefe0b}, !- Handle
  heating setpoint allday1,               !- Name
  {d5992c9d-b0f6-4e19-a4c4-57dbf1240113}, !- Schedule Type Limits Name
  ,                                       !- Interpolate to Timestep
  24,                                     !- Hour 1
  0,                                      !- Minute 1
  21.1111111111111;                       !- Value Until Time 1

OS:Schedule:Ruleset,
  {2d542ae0-35db-4f36-97c7-c1a01e0cd240}, !- Handle
  cooling setpoint,                       !- Name
  {d5992c9d-b0f6-4e19-a4c4-57dbf1240113}, !- Schedule Type Limits Name
  {c27d4648-200d-41cb-bc32-a0b1ed8396f9}; !- Default Day Schedule Name

OS:Schedule:Day,
  {c27d4648-200d-41cb-bc32-a0b1ed8396f9}, !- Handle
  cooling setpoint default day,           !- Name
  {d5992c9d-b0f6-4e19-a4c4-57dbf1240113}, !- Schedule Type Limits Name
  ,                                       !- Interpolate to Timestep
  24,                                     !- Hour 1
  0,                                      !- Minute 1
  0;                                      !- Value Until Time 1

OS:Schedule:Rule,
  {fe9cd75e-5a85-4207-98b2-19c975bfcd76}, !- Handle
  cooling setpoint allday ruleset1,       !- Name
  {2d542ae0-35db-4f36-97c7-c1a01e0cd240}, !- Schedule Ruleset Name
  0,                                      !- Rule Order
  {5a761803-6589-43e2-8197-6f11f6f51668}, !- Day Schedule Name
  Yes,                                    !- Apply Sunday
  Yes,                                    !- Apply Monday
  Yes,                                    !- Apply Tuesday
  Yes,                                    !- Apply Wednesday
  Yes,                                    !- Apply Thursday
  Yes,                                    !- Apply Friday
  Yes,                                    !- Apply Saturday
  DateRange,                              !- Date Specification Type
  1,                                      !- Start Month
  1,                                      !- Start Day
  12,                                     !- End Month
  31;                                     !- End Day

OS:Schedule:Day,
  {5a761803-6589-43e2-8197-6f11f6f51668}, !- Handle
  cooling setpoint allday1,               !- Name
  {d5992c9d-b0f6-4e19-a4c4-57dbf1240113}, !- Schedule Type Limits Name
  ,                                       !- Interpolate to Timestep
  24,                                     !- Hour 1
  0,                                      !- Minute 1
  21.1111111111111;                       !- Value Until Time 1

OS:ThermostatSetpoint:DualSetpoint,
  {46e9da5b-0f33-485f-9eea-d9b4a9bc2ecd}, !- Handle
  conditioned space temperature setpoint, !- Name
  {481b9b06-efa6-4baf-aac8-dbfc40b4d459}, !- Heating Setpoint Temperature Schedule Name
  {2d542ae0-35db-4f36-97c7-c1a01e0cd240}; !- Cooling Setpoint Temperature Schedule Name

OS:ScheduleTypeLimits,
  {d5992c9d-b0f6-4e19-a4c4-57dbf1240113}, !- Handle
  Temperature,                            !- Name
  ,                                       !- Lower Limit Value
  ,                                       !- Upper Limit Value
  Continuous,                             !- Numeric Type
  Temperature;                            !- Unit Type

OS:Surface,
  {b2c168f4-fcad-47e0-ae52-d3fe838368b4}, !- Handle
  Roof1,                                  !- Name
  RoofCeiling,                            !- Surface Type
  {7ff4b383-59b1-4019-8905-c9e21a970bdd}, !- Construction Name
  {51361d88-6498-497c-8bac-a50183d37ba7}, !- Space Name
  Outdoors,                               !- Outside Boundary Condition
  ,                                       !- Outside Boundary Condition Object
  SunExposed,                             !- Sun Exposure
  WindExposed,                            !- Wind Exposure
  ,                                       !- View Factor to Ground
  ,                                       !- Number of Vertices
  13.7571187551506, 30.945528152087, 5.1816, !- X,Y,Z Vertex 1 {m}
  9.5575099852883, 26.7459195504081, 8.15117178003833, !- X,Y,Z Vertex 2 {m}
  14.2528151414118, 22.0506142062499, 8.15117178003833, !- X,Y,Z Vertex 3 {m}
  18.4524239112741, 26.2502228079289, 5.1816; !- X,Y,Z Vertex 4 {m}

OS:AdditionalProperties,
  {ede03f71-64ca-4b75-8a9d-fe4011ab8ec8}, !- Handle
  {b2c168f4-fcad-47e0-ae52-d3fe838368b4}, !- Object Name
  Length,                                 !- Feature Name 1
  Double,                                 !- Feature Data Type 1
  21.785316155612705,                     !- Feature Value 1
  Width,                                  !- Feature Name 2
  Double,                                 !- Feature Data Type 2
  21.785316155612708,                     !- Feature Value 2
  Azimuth,                                !- Feature Name 3
  Integer,                                !- Feature Data Type 3
  45,                                     !- Feature Value 3
  Tilt,                                   !- Feature Name 4
  Double,                                 !- Feature Data Type 4
  0.5,                                    !- Feature Value 4
  SurfaceType,                            !- Feature Name 5
  String,                                 !- Feature Data Type 5
  Roof;                                   !- Feature Value 5

OS:ThermalZone,
  {635e9b21-0598-44f9-95b3-168902f66d56}, !- Handle
  attic - vented,                         !- Name
  1,                                      !- Multiplier
  ,                                       !- Ceiling Height {m}
  80.9187811413394,                       !- Volume {m3}
  ,                                       !- Floor Area {m2}
  ,                                       !- Zone Inside Convection Algorithm
  ,                                       !- Zone Outside Convection Algorithm
  ,                                       !- Zone Conditioning Equipment List Name
  {e0b223cb-a2a0-4c8d-b667-d6adc77a1b47}, !- Zone Air Inlet Port List
  {7fd6dcdf-871c-40c7-9f9c-f1d60beb12c8}, !- Zone Air Exhaust Port List
  {ee49ed27-3f06-4dcc-8233-79238819da35}, !- Zone Air Node Name
  {2ebde145-ad8d-4acd-961c-57e46f9cb868}, !- Zone Return Air Port List
  ,                                       !- Primary Daylighting Control Name
  ,                                       !- Fraction of Zone Controlled by Primary Daylighting Control
  ,                                       !- Secondary Daylighting Control Name
  ,                                       !- Fraction of Zone Controlled by Secondary Daylighting Control
  ,                                       !- Illuminance Map Name
  ,                                       !- Group Rendering Name
  ,                                       !- Thermostat Name
  No;                                     !- Use Ideal Air Loads

OS:Node,
  {37060ec0-1f14-4010-b55c-72af4f7dd051}, !- Handle
  Node 2,                                 !- Name
  {ee49ed27-3f06-4dcc-8233-79238819da35}, !- Inlet Port
  ;                                       !- Outlet Port

OS:Connection,
  {ee49ed27-3f06-4dcc-8233-79238819da35}, !- Handle
  {635e9b21-0598-44f9-95b3-168902f66d56}, !- Source Object
  11,                                     !- Outlet Port
  {37060ec0-1f14-4010-b55c-72af4f7dd051}, !- Target Object
  2;                                      !- Inlet Port

OS:PortList,
  {e0b223cb-a2a0-4c8d-b667-d6adc77a1b47}, !- Handle
  {635e9b21-0598-44f9-95b3-168902f66d56}; !- HVAC Component

OS:PortList,
  {7fd6dcdf-871c-40c7-9f9c-f1d60beb12c8}, !- Handle
  {635e9b21-0598-44f9-95b3-168902f66d56}; !- HVAC Component

OS:PortList,
  {2ebde145-ad8d-4acd-961c-57e46f9cb868}, !- Handle
  {635e9b21-0598-44f9-95b3-168902f66d56}; !- HVAC Component

OS:Sizing:Zone,
  {14bc1f3b-3931-42a0-826e-b07b5633c279}, !- Handle
  {635e9b21-0598-44f9-95b3-168902f66d56}, !- Zone or ZoneList Name
  SupplyAirTemperature,                   !- Zone Cooling Design Supply Air Temperature Input Method
  14,                                     !- Zone Cooling Design Supply Air Temperature {C}
  11.11,                                  !- Zone Cooling Design Supply Air Temperature Difference {deltaC}
  SupplyAirTemperature,                   !- Zone Heating Design Supply Air Temperature Input Method
  40,                                     !- Zone Heating Design Supply Air Temperature {C}
  11.11,                                  !- Zone Heating Design Supply Air Temperature Difference {deltaC}
  0.0085,                                 !- Zone Cooling Design Supply Air Humidity Ratio {kg-H2O/kg-air}
  0.008,                                  !- Zone Heating Design Supply Air Humidity Ratio {kg-H2O/kg-air}
  ,                                       !- Zone Heating Sizing Factor
  ,                                       !- Zone Cooling Sizing Factor
  DesignDay,                              !- Cooling Design Air Flow Method
  ,                                       !- Cooling Design Air Flow Rate {m3/s}
  ,                                       !- Cooling Minimum Air Flow per Zone Floor Area {m3/s-m2}
  ,                                       !- Cooling Minimum Air Flow {m3/s}
  ,                                       !- Cooling Minimum Air Flow Fraction
  DesignDay,                              !- Heating Design Air Flow Method
  ,                                       !- Heating Design Air Flow Rate {m3/s}
  ,                                       !- Heating Maximum Air Flow per Zone Floor Area {m3/s-m2}
  ,                                       !- Heating Maximum Air Flow {m3/s}
  ,                                       !- Heating Maximum Air Flow Fraction
  No,                                     !- Account for Dedicated Outdoor Air System
  NeutralSupplyAir,                       !- Dedicated Outdoor Air System Control Strategy
  autosize,                               !- Dedicated Outdoor Air Low Setpoint Temperature for Design {C}
  autosize,                               !- Dedicated Outdoor Air High Setpoint Temperature for Design {C}
  Sensible Load Only No Latent Load,      !- Zone Load Sizing Method
  HumidityRatioDifference,                !- Zone Latent Cooling Design Supply Air Humidity Ratio Input Method
  ,                                       !- Zone Dehumidification Design Supply Air Humidity Ratio {kgWater/kgDryAir}
  0.005,                                  !- Zone Cooling Design Supply Air Humidity Ratio Difference {kgWater/kgDryAir}
  HumidityRatioDifference,                !- Zone Latent Heating Design Supply Air Humidity Ratio Input Method
  ,                                       !- Zone Humidification Design Supply Air Humidity Ratio {kgWater/kgDryAir}
  0.005;                                  !- Zone Humidification Design Supply Air Humidity Ratio Difference {kgWater/kgDryAir}

OS:ZoneHVAC:EquipmentList,
  {07fc0a04-729d-42e4-9f72-d30c2593344d}, !- Handle
  Zone HVAC Equipment List 2,             !- Name
  {635e9b21-0598-44f9-95b3-168902f66d56}; !- Thermal Zone

OS:AdditionalProperties,
  {de000b95-b593-4514-8a32-6698ae9bb7d6}, !- Handle
  {635e9b21-0598-44f9-95b3-168902f66d56}, !- Object Name
  ObjectType,                             !- Feature Name 1
  String,                                 !- Feature Data Type 1
  attic - vented;                         !- Feature Value 1

OS:Space,
  {51361d88-6498-497c-8bac-a50183d37ba7}, !- Handle
  attic - vented 1,                       !- Name
  ,                                       !- Space Type Name
  ,                                       !- Default Construction Set Name
  ,                                       !- Default Schedule Set Name
  ,                                       !- Direction of Relative North {deg}
  ,                                       !- X Origin {m}
  ,                                       !- Y Origin {m}
  ,                                       !- Z Origin {m}
  ,                                       !- Building Story Name
  {635e9b21-0598-44f9-95b3-168902f66d56}, !- Thermal Zone Name
  ,                                       !- Part of Total Floor Area
  ,                                       !- Design Specification Outdoor Air Object Name
  {f7a7cf31-8f80-4dfd-952b-68dc8d3066be}, !- Building Unit Name
  80.9187811413394;                       !- Volume {m3}

OS:Material,
  {c8f631ed-a23a-4dcd-84e8-bf9e67fc7c3c}, !- Handle
  slate or tile shingles,                 !- Name
  Rough,                                  !- Roughness
  0.01905,                                !- Thickness {m}
  0.8409775,                              !- Conductivity {W/m-K}
  1899.972,                               !- Density {kg/m3}
  799.717,                                !- Specific Heat {J/kg-K}
  0.9,                                    !- Thermal Absorptance
  0.75,                                   !- Solar Absorptance
  0.75;                                   !- Visible Absorptance

OS:Material,
  {e320d04a-0301-4562-81f9-2af418bba6d8}, !- Handle
  roof rigid ins,                         !- Name
  Rough,                                  !- Roughness
  0.00329813704916861,                    !- Thickness {m}
  0.029427,                               !- Conductivity {W/m-K}
  32.04,                                  !- Density {kg/m3}
  1214.23,                                !- Specific Heat {J/kg-K}
  0.9,                                    !- Thermal Absorptance
  0.7,                                    !- Solar Absorptance
  0.7;                                    !- Visible Absorptance

OS:Material,
  {c199caa1-74c0-4ab2-9a93-cb09497385e0}, !- Handle
  osb sheathing 0.5 in.,                  !- Name
  Rough,                                  !- Roughness
  0.0127,                                 !- Thickness {m}
  0.1154577,                              !- Conductivity {W/m-K}
  512.64,                                 !- Density {kg/m3}
  1214.23,                                !- Specific Heat {J/kg-K}
  0.9,                                    !- Thermal Absorptance
  0.6,                                    !- Solar Absorptance
  0.6;                                    !- Visible Absorptance

OS:Construction,
  {7ff4b383-59b1-4019-8905-c9e21a970bdd}, !- Handle
  Roof1 construction,                     !- Name
  ,                                       !- Surface Rendering Name
  {c8f631ed-a23a-4dcd-84e8-bf9e67fc7c3c}, !- Layer 1
  {e320d04a-0301-4562-81f9-2af418bba6d8}, !- Layer 2
  {c199caa1-74c0-4ab2-9a93-cb09497385e0}; !- Layer 3

OS:Surface,